 &time_control
 run_days                            = 0,
 run_hours                           = 2,
 run_minutes                         = 0,
 run_seconds                         = 0,
 start_year                          = 2017, 2006, 2000,
 start_month                         = 08,   08,   01,
 start_day                           = 16,   16,   24,
 start_hour                          = 12,   12,   12,
 end_year                            = 2017, 2006, 2000,
 end_month                           = 08,   08,   01,
 end_day                             = 16,   16,   25,
 end_hour                            = 14,   18,   12,
 interval_seconds                    = 21600
 input_from_file                     = .true.,.true.,.true.,
 history_interval                    = 60,  60,   60,
 frames_per_outfile                  = 1000, 1000, 1000,
 restart                             = .false.,
 restart_interval                    = 7200,
 io_form_history                     = 2
 io_form_restart                     = 2
 io_form_input                       = 2
 io_form_boundary                    = 2
 auxinput5_interval                  = 3600
 io_form_auxinput5                   = 2
 force_use_old_data                  = .true.
 /

 &domains
 time_step                           = 180,
 time_step_fract_num                 = 0,
 time_step_fract_den                 = 1,
 max_dom                             = 1,
 e_we                                = 9,    28,   94,
 e_sn                                = 8,    25,    91,
 e_vert                              = 33,    33,    33,
 p_top_requested                     = 10000,
 num_metgrid_levels                  = 30,
 num_metgrid_soil_levels             = 4,
 dx                                  = 30000,
 dy                                  = 30000,
 grid_id                             = 1,     2,     3,
 parent_id                           = 0,     1,     2,
 i_parent_start                      = 1,     2,    30,
 j_parent_start                      = 1,     2,    30,
 parent_grid_ratio                   = 1,     3,     3,
 parent_time_step_ratio              = 1,     3,     3,
 feedback                            = 1,
 smooth_option                       = 0
 /

 &physics
 physics_suite                       = 'CONUS'
 mp_physics                          = 10,    -1,    -1,
 cu_physics                          = 3
 cugd_avedx                          = 1
 cu_rad_feedback                     = .true
 ra_lw_physics                       = -1,    -1,    -1,
 ra_sw_physics                       = -1,    -1,    -1,
 bl_pbl_physics                      = -1,    -1,    -1,
 sf_sfclay_physics                   = 1,    -1,    -1,
 sf_surface_physics                  = 2,    -1,    -1,
 bl_pbl_physics                      = 1
 radt                                = 30,    30,    30,
 bldt                                = 0,     0,     0,
 cudt                                = 5,     5,     5,
 icloud                              = 1,
 num_land_cat                        = 21,
 sf_urban_physics                    = 0,     0,     0,
 mp_zero_out                         = 2
 progn                               = 1
 /

 &fdda
 /

 &dynamics
 hybrid_opt                          = 2, 
 w_damping                           = 0,
 diff_opt                            = 1,      1,      1,
 km_opt                              = 4,      4,      4,
 chem_adv_opt                        = 2
 moist_adv_opt                       = 2
 scalar_adv_opt                      = 2
 tke_adv_opt                         = 2
 diff_6th_opt                        = 0,      0,      0,
 diff_6th_factor                     = 0.12,   0.12,   0.12,
 base_temp                           = 290.
 damp_opt                            = 3,
 zdamp                               = 5000.,  5000.,  5000.,
 dampcoef                            = 0.2,    0.2,    0.2
 khdif                               = 0,      0,      0,
 kvdif                               = 0,      0,      0,
 non_hydrostatic                     = .true., .true., .true.,
 moist_adv_opt                       = 1,      1,      1,     
 scalar_adv_opt                      = 1,      1,      1,     
 gwd_opt                             = 1,      1,      0,
 /

 &chem
 kemit                               = 10,
 chem_opt                            = 202,        2,
 bioemdt                             = 30,       30,
 photdt                              = 30,       30,
 chemdt                              = 0.,       2.,
 io_style_emissions                  = 2,
 emiss_inpt_opt                      = 1,        1,
 emiss_opt                           = 10,        3,
 chem_in_opt                         = 0,        0,
 phot_opt                            = 1,        1,
 gas_drydep_opt                      = 1,        1,
 aer_drydep_opt                      = 1,        1,
 bio_emiss_opt                       = 1,        1,
 dust_opt                            = 0,
 dmsemis_opt                         = 0,
 seas_opt                            = 0,
 gas_bc_opt                          = 1,        1,
 gas_ic_opt                          = 1,        1,
 aer_bc_opt                          = 1,        1,
 aer_ic_opt                          = 1,        1,
 gaschem_onoff                       = 1,        1,
 aerchem_onoff                       = 1,        1,
 wetscav_onoff                       = 0,        0,
 cldchem_onoff                       = 0,        0,
 vertmix_onoff                       = 1,        1,
 chem_conv_tr                        = 1,        1,
 biomass_burn_opt                    = 0,        0,
 plumerisefire_frq                   = 30,       30,
 aer_ra_feedback                     = 0,        0,
 have_bcs_chem                       = .false., .false.,
 /

 &bdy_control
 spec_bdy_width                      = 5,
 specified                           = .true.
 /

 &grib2
 /

 &namelist_quilt
 nio_tasks_per_group = 0,
 nio_groups = 1,
 /
